
.model IRFP9240 VDMOS pchan
+ Vto=-4 Kp=8.8 Lambda=.003 Theta=0.08 ksubthres=.35
+ Rd=180m Rs=50m Rg=3 Rds=1e7
+ Cgdmax=1.25n Cgdmin=50p a=0.23 Cgs=1.15n
+ Is=150p N=1.3 Rb=16m XTI=2
+ Cjo=1.3n Vj=0.8 m=0.5
+ tcvth=0.004 MU=-1.27 texp0=1.5
+ Rthjc=0.4 Cthj=0.1
+ mtriode=0.6
+ tnom=29
